Version 4
SHEET 1 1368 692
WIRE -176 -240 -416 -240
WIRE 16 -240 -176 -240
WIRE 544 -240 16 -240
WIRE 544 -160 544 -240
WIRE 480 -112 416 -112
WIRE -176 -48 -176 -240
WIRE 16 -48 16 -240
WIRE 416 -32 416 -112
WIRE -80 0 -112 0
WIRE -48 0 -80 0
WIRE 240 16 128 16
WIRE 352 16 240 16
WIRE 1232 32 1152 32
WIRE 1152 64 1152 32
WIRE 1232 64 1232 32
WIRE 1296 64 1232 64
WIRE -176 80 -176 48
WIRE -80 80 -80 0
WIRE -80 80 -176 80
WIRE 416 80 416 64
WIRE 544 80 544 -64
WIRE 544 80 416 80
WIRE 1296 96 1296 64
WIRE -416 128 -416 -240
WIRE 16 128 16 48
WIRE 128 128 128 16
WIRE 128 128 16 128
WIRE -176 176 -176 80
WIRE 16 176 16 128
WIRE 544 176 544 80
WIRE 624 176 544 176
WIRE 912 176 848 176
WIRE 1152 176 1152 144
WIRE 1152 176 992 176
WIRE 240 192 240 16
WIRE -1120 208 -1120 144
WIRE -800 224 -800 160
WIRE 80 224 64 224
WIRE 544 224 544 176
WIRE 368 240 304 240
WIRE 1232 240 1232 64
WIRE 1152 256 1152 176
WIRE 1200 256 1152 256
WIRE 1312 272 1264 272
WIRE 1328 272 1312 272
WIRE 912 288 848 288
WIRE 1088 288 992 288
WIRE 1152 288 1088 288
WIRE 1200 288 1152 288
WIRE -1120 320 -1120 288
WIRE -800 320 -800 304
WIRE -736 320 -800 320
WIRE -704 320 -736 320
WIRE -176 320 -176 272
WIRE -80 320 -176 320
WIRE 16 320 16 272
WIRE 16 320 -80 320
WIRE -800 336 -800 320
WIRE -416 336 -416 208
WIRE -256 336 -416 336
WIRE -736 368 -736 320
WIRE -736 368 -768 368
WIRE -416 368 -416 336
WIRE -80 368 -80 320
WIRE 1232 368 1232 304
WIRE 240 384 240 288
WIRE 912 400 848 400
WIRE 1088 400 1088 288
WIRE 1088 400 992 400
WIRE -256 416 -256 336
WIRE -256 416 -352 416
WIRE -144 416 -256 416
WIRE -800 432 -800 400
WIRE 80 432 80 224
WIRE 320 432 80 432
WIRE 368 432 320 432
WIRE 544 432 544 304
WIRE 544 432 448 432
WIRE 1152 512 1152 288
WIRE 1200 512 1152 512
WIRE 1312 512 1312 272
WIRE 1312 512 1280 512
WIRE 320 544 320 432
WIRE 544 544 544 432
WIRE -416 576 -416 464
WIRE -80 576 -80 464
WIRE 320 672 320 624
WIRE 544 672 544 624
FLAG -80 576 0
FLAG -416 576 0
FLAG 544 672 0
FLAG 320 672 0
FLAG -240 224 Vref
FLAG -1120 320 0
FLAG -1120 144 Vreg
FLAG -416 -240 Vreg
FLAG 544 432 Vo
FLAG 624 176 Vx
FLAG 240 384 0
FLAG 368 240 Vf
FLAG 1328 272 Vf
FLAG 848 400 Vref
FLAG 848 288 Vo
FLAG 848 176 Vx
FLAG 1232 368 Vreg
FLAG -800 432 0
FLAG -704 320 Vref
FLAG -800 160 Vreg
FLAG 1296 96 0
SYMBOL npn -240 176 R0
WINDOW 3 23 57 Left 2
SYMATTR Value BC547B
SYMATTR InstName Q1
SYMBOL pnp -112 48 R180
SYMATTR InstName Q2
SYMATTR Value BC557B
SYMBOL res 464 416 R90
WINDOW 0 0 56 VBottom 2
WINDOW 3 32 56 VTop 2
SYMATTR InstName R1
SYMATTR Value 10k
SYMBOL res 336 640 R180
WINDOW 0 36 76 Left 2
WINDOW 3 36 40 Left 2
SYMATTR InstName R2
SYMATTR Value 10k
SYMBOL res -432 112 R0
SYMATTR InstName R3
SYMATTR Value 4k7
SYMBOL voltage -1120 192 R0
WINDOW 123 0 0 Left 0
WINDOW 39 0 0 Left 0
SYMATTR InstName Vreg1
SYMATTR Value 9.5
SYMBOL res 528 528 R0
SYMATTR InstName RL1
SYMATTR Value 6
SYMBOL pnp 480 -64 M180
SYMATTR InstName Qtip32a
SYMBOL res 528 208 R0
SYMATTR InstName R4
SYMATTR Value 1
SYMBOL res 1296 528 M270
WINDOW 0 32 56 VTop 2
WINDOW 3 0 56 VBottom 2
SYMATTR InstName R5
SYMATTR Value 10k
SYMBOL res 1008 416 M270
WINDOW 0 32 56 VTop 2
WINDOW 3 0 56 VBottom 2
SYMATTR InstName R6
SYMATTR Value 1.2k
SYMBOL res 1008 304 M270
WINDOW 0 32 56 VTop 2
WINDOW 3 0 56 VBottom 2
SYMATTR InstName R7
SYMATTR Value 150
SYMBOL res 1008 192 M270
WINDOW 0 32 56 VTop 2
WINDOW 3 0 56 VBottom 2
SYMATTR InstName R8
SYMATTR Value 3.9k
SYMBOL res 1136 160 M180
WINDOW 0 36 76 Left 2
WINDOW 3 36 40 Left 2
SYMATTR InstName R9
SYMATTR Value 10k
SYMBOL OpAmps\\opamp2 1232 336 M180
SYMATTR InstName U1
SYMATTR Value LM358
SYMBOL pnp -48 48 M180
SYMATTR InstName Q3
SYMATTR Value BC557B
SYMBOL npn 80 176 M0
WINDOW 3 23 57 Left 2
SYMATTR Value BC547B
SYMATTR InstName Q4
SYMBOL npn -144 368 R0
WINDOW 3 23 57 Left 2
SYMATTR Value BC547B
SYMATTR InstName Q5
SYMBOL npn -352 368 M0
WINDOW 3 23 57 Left 2
SYMATTR Value BC547B
SYMATTR InstName Q6
SYMBOL npn 352 -32 R0
WINDOW 3 23 57 Left 2
SYMATTR Value BC547B
SYMATTR InstName Q7
SYMBOL npn 304 192 M0
WINDOW 3 23 57 Left 2
SYMATTR Value BC547B
SYMATTR InstName Q8
SYMBOL res -816 208 R0
SYMATTR InstName R10
SYMATTR Value 680
SYMBOL TL431 -784 400 R180
SYMATTR InstName U2
TEXT -768 -16 Left 2 !.op
TEXT -784 -120 Left 2 ;.include tip32a.lib
TEXT -784 -88 Left 2 !.lib opamp.sub
TEXT -776 -168 Left 2 !.inc lm358.lib
TEXT -776 -200 Left 2 !.include TL431.mod
