Version 4
SHEET 1 1620 740
WIRE -192 -368 -432 -368
WIRE 0 -368 -192 -368
WIRE 528 -368 0 -368
WIRE -192 -288 -192 -368
WIRE 0 -288 0 -368
WIRE 528 -288 528 -368
WIRE 256 -256 176 -256
WIRE 464 -240 400 -240
WIRE 256 -208 256 -256
WIRE -192 -176 -192 -208
WIRE 0 -176 0 -208
WIRE 400 -160 400 -240
WIRE -96 -128 -128 -128
WIRE -64 -128 -96 -128
WIRE 176 -112 112 -112
WIRE 240 -112 176 -112
WIRE 336 -112 240 -112
WIRE 1216 -96 1136 -96
WIRE 1136 -64 1136 -96
WIRE 1216 -64 1216 -96
WIRE 1280 -64 1216 -64
WIRE -192 -48 -192 -80
WIRE -96 -48 -96 -128
WIRE -96 -48 -192 -48
WIRE 240 -48 240 -112
WIRE 352 -48 320 -48
WIRE 400 -48 400 -64
WIRE 528 -48 528 -192
WIRE 528 -48 400 -48
WIRE 1280 -32 1280 -64
WIRE -432 0 -432 -368
WIRE 0 0 0 -80
WIRE 112 0 112 -112
WIRE 112 0 0 0
WIRE 240 0 240 -48
WIRE -192 48 -192 -48
WIRE 0 48 0 0
WIRE 528 48 528 -48
WIRE 608 48 528 48
WIRE 896 48 832 48
WIRE 1136 48 1136 16
WIRE 1136 48 976 48
WIRE -576 80 -576 48
WIRE 528 80 528 48
WIRE 528 80 448 80
WIRE 64 96 48 96
WIRE 240 96 240 80
WIRE 352 96 304 96
WIRE 448 112 448 80
WIRE 528 112 528 80
WIRE 1216 112 1216 -64
WIRE 1136 128 1136 48
WIRE 1184 128 1136 128
WIRE 1296 144 1248 144
WIRE 1408 144 1296 144
WIRE -784 160 -784 96
WIRE 896 160 832 160
WIRE 1072 160 976 160
WIRE 1136 160 1072 160
WIRE 1184 160 1136 160
WIRE -576 176 -576 160
WIRE -512 176 -576 176
WIRE -496 176 -512 176
WIRE 144 176 112 176
WIRE 240 176 240 96
WIRE -576 192 -576 176
WIRE -192 192 -192 144
WIRE -96 192 -192 192
WIRE 0 192 0 144
WIRE 0 192 -96 192
WIRE -432 208 -432 80
WIRE -272 208 -432 208
WIRE 112 208 112 176
WIRE -512 224 -512 176
WIRE -512 224 -544 224
WIRE 448 224 448 192
WIRE 528 224 528 192
WIRE 528 224 448 224
WIRE -432 240 -432 208
WIRE -96 240 -96 192
WIRE 288 240 192 240
WIRE 1216 240 1216 176
WIRE -784 272 -784 240
WIRE 896 272 832 272
WIRE 1072 272 1072 160
WIRE 1072 272 976 272
WIRE -272 288 -272 208
WIRE -272 288 -368 288
WIRE -160 288 -272 288
WIRE 64 304 64 96
WIRE 304 304 64 304
WIRE 352 304 304 304
WIRE 528 304 528 224
WIRE 528 304 432 304
WIRE 640 304 528 304
WIRE -576 320 -576 256
WIRE -432 352 -432 336
WIRE -96 352 -96 336
WIRE 528 368 528 304
WIRE 640 384 640 304
WIRE 1136 384 1136 160
WIRE 1184 384 1136 384
WIRE 1296 384 1296 144
WIRE 1296 384 1264 384
WIRE 304 416 304 304
WIRE -432 448 -432 432
WIRE -96 448 -96 432
WIRE 528 512 528 448
WIRE 640 512 640 448
WIRE 640 512 528 512
WIRE 304 544 304 496
WIRE 528 544 528 512
FLAG -96 448 0
FLAG -432 448 0
FLAG 528 544 0
FLAG 304 544 0
FLAG -256 96 Vref
FLAG -784 272 0
FLAG -784 96 Vreg
FLAG -432 -368 Vreg
FLAG 528 304 Vo
FLAG 608 48 Vx
FLAG 112 208 0
FLAG 288 240 Vf
FLAG 1408 144 Vf
FLAG 832 272 Vref
FLAG 832 160 Vo
FLAG 832 48 Vx
FLAG 1216 240 Vreg
FLAG 1280 -32 0
FLAG 352 -48 0
FLAG -576 320 0
FLAG -576 48 Vreg
FLAG -496 176 Vref
FLAG 352 96 0
FLAG 256 -208 0
SYMBOL npn -256 48 R0
WINDOW 3 23 57 Left 2
SYMATTR Value BC547B
SYMATTR InstName Q1
SYMBOL pnp -128 -80 R180
SYMATTR InstName Q2
SYMATTR Value BC557B
SYMBOL res 448 288 R90
WINDOW 0 0 56 VBottom 2
WINDOW 3 32 56 VTop 2
SYMATTR InstName R1
SYMATTR Value 10k
SYMBOL res 320 512 R180
WINDOW 0 36 76 Left 2
WINDOW 3 36 40 Left 2
SYMATTR InstName R2
SYMATTR Value 10k
SYMBOL res -448 -16 R0
SYMATTR InstName R3
SYMATTR Value 4k7
SYMBOL voltage -784 144 R0
WINDOW 123 0 0 Left 0
WINDOW 39 0 0 Left 0
SYMATTR InstName Vreg1
SYMATTR Value 9.5
SYMBOL res 512 352 R0
SYMATTR InstName RL1
SYMATTR Value 1
SYMBOL pnp 464 -192 M180
SYMATTR InstName Qtip1
SYMBOL res 512 96 R0
SYMATTR InstName RS1
SYMATTR Value 1.8
SYMBOL res 1280 400 M270
WINDOW 0 32 56 VTop 2
WINDOW 3 0 56 VBottom 2
SYMATTR InstName 100
SYMATTR Value 10k
SYMBOL res 992 288 M270
WINDOW 0 32 56 VTop 2
WINDOW 3 0 56 VBottom 2
SYMATTR InstName R5
SYMATTR Value 1.2k
SYMBOL res 992 176 M270
WINDOW 0 32 56 VTop 2
WINDOW 3 0 56 VBottom 2
SYMATTR InstName R6
SYMATTR Value 150
SYMBOL res 992 64 M270
WINDOW 0 32 56 VTop 2
WINDOW 3 0 56 VBottom 2
SYMATTR InstName R7
SYMATTR Value 3.9k
SYMBOL res 1120 32 M180
WINDOW 0 36 76 Left 2
WINDOW 3 36 40 Left 2
SYMATTR InstName R8
SYMATTR Value 10k
SYMBOL OpAmps\\opamp2 1216 208 M180
SYMATTR InstName U1
SYMATTR Value LM358
SYMBOL pnp -64 -80 M180
SYMATTR InstName Q3
SYMATTR Value BC557B
SYMBOL npn 64 48 M0
WINDOW 3 23 57 Left 2
SYMATTR Value BC547B
SYMATTR InstName Q4
SYMBOL npn -160 240 R0
WINDOW 3 23 57 Left 2
SYMATTR Value BC547B
SYMATTR InstName Q5
SYMBOL npn -368 240 M0
WINDOW 3 23 57 Left 2
SYMATTR Value BC547B
SYMATTR InstName Q6
SYMBOL npn 336 -160 R0
WINDOW 3 23 57 Left 2
SYMATTR Value BC547B
SYMATTR InstName Q7
SYMBOL npn 240 240 M270
WINDOW 3 23 57 Left 2
SYMATTR Value BC547B
SYMATTR InstName Q8
SYMBOL res -208 -304 R0
SYMATTR InstName R11
SYMATTR Value 100
SYMBOL cap 624 384 R0
SYMATTR InstName CL
SYMATTR Value {CL}
SYMBOL res 432 96 R0
SYMATTR InstName RS2
SYMATTR Value 2.2
SYMBOL current 320 -48 R90
WINDOW 0 -32 40 VBottom 2
WINDOW 3 32 40 VTop 2
WINDOW 123 55 35 VBottom 2
WINDOW 39 0 0 Left 0
SYMATTR InstName I1
SYMATTR Value ""
SYMATTR Value2 AC 1
SYMBOL ind 256 96 R180
WINDOW 0 36 80 Left 2
WINDOW 3 36 40 Left 2
SYMATTR InstName L1
SYMATTR Value 1Meg
SYMBOL cap 304 80 R90
WINDOW 0 0 32 VBottom 2
WINDOW 3 32 32 VTop 2
SYMATTR InstName C1
SYMATTR Value 1Meg
SYMBOL TL431 -560 256 R180
SYMATTR InstName U2
SYMBOL res -592 64 R0
SYMATTR InstName R15
SYMATTR Value 680
SYMBOL res -16 -304 R0
SYMATTR InstName R12
SYMATTR Value 100
SYMBOL res -112 336 R0
SYMATTR InstName R13
SYMATTR Value 100
SYMBOL res -448 336 R0
SYMATTR InstName R14
SYMATTR Value 100
SYMBOL cap 160 -176 R0
SYMATTR InstName C2
SYMATTR Value 330n
SYMBOL res 160 -272 R0
SYMATTR InstName R9
SYMATTR Value 22
TEXT -816 -736 Left 2 ;.include tip32a.lib
TEXT -816 -704 Left 2 !.lib opamp.sub
TEXT -800 -768 Left 2 !.inc lm358.lib
TEXT -808 -816 Left 2 !.include TL431.mod
TEXT -792 -152 Left 2 !.ac dec 100 1 10Meg
TEXT -64 96 Left 2 ;Q1
TEXT 56 -120 Left 2 ;Q2
TEXT 424 -120 Left 2 ;Q3
TEXT 568 -240 Left 2 ;Q4
TEXT 176 152 Left 2 ;Q5
TEXT 744 376 Left 2 !.step param CL list 1u 15u
